LAMMPS (22 Jul 2025 - Update 2)
KOKKOS mode with Kokkos version 4.6.2 is enabled
  will use up to 1 GPU(s) per node
package kokkos
package kokkos newton on neigh half
# --- Initialization ---
units           metal
dimension       3
boundary        p p p
atom_style      atomic
newton          on

# --- System Definition ---
# If is_resume is > 0, read the restart file. Otherwise, start from the data file.
read_data SiC_minimized_05.data
Reading data file ...
  orthogonal box = (0.024669564 0.024669564 0.024669564) to (33.17533 33.17533 33.17533)
  reading atoms ...
  3000 atoms
  reading velocities ...
  3000 velocities

# --- Force Field (1=N, 2=Si) ---
# Mapping: 1=C (Mass 12), 2=Si (Mass 28) as per your data file
pair_style      vashishta/kk
pair_coeff      * * SiC.vashishta C Si
Reading vashishta potential file SiC.vashishta with DATE: 2015-10-14

# --- Simulation Settings ---
neighbor        2.0 bin
neigh_modify    every 1 delay 0 check yes
timestep        0.001  # 1.0 fs

# --- Output Formatting ---
thermo_style    custom step temp pe press density vol
thermo          1000   # Print status every 1 ps
restart         50000 SiC_glass_05.*

# --- 1. Melt (50 ps at 5000 K) ---
# Aim: Liquid equilibration to remove "memory" of Packmol structure
variable melt_end_step equal 50000
variable quench_end_step equal 50000+47000
variable relax_end_step equal 97000+100000

# --- Logic to skip completed phases on resume ---
variable cur_step equal step

# --- 1. Melt (50 ps at 5000 K) ---

velocity all create 5000 398283
fix             1 all npt/kk temp 5000 5000 0.1 iso 0.0 0.0 1.0
run             50000 upto
Step          Temp          PotEng         Press         Density         Volume
0   5000          -17213.73       56925.319      2.7413519      36431.46
Averages over the last 26 of 51 rows, steps 25000 to 50000:
Temp PotEng Press Density Volume
5001.36 -14269.1 105.091 1.56212 63956.8
Loop time of 110.522 on 1 procs for 50000 steps with 3000 atoms

unfix           1

label skip_melt

# --- 2. Quench (Variable duration, 5000 K -> 300 K) ---

# Calculate start temp based on current progress (crucial for smooth resumes)
variable progress equal (step-50000)/47000
variable T_start equal 5000.0+(300.0-5000.0)*v_progress

fix             2 all npt/kk temp 5000 300 0.1 iso 0.0 0.0 1.0
run             97000 upto
Step          Temp          PotEng         Press         Density         Volume
50000   5160.9518     -14290.046      1304.0299      1.592147       62727.534
Averages over the last 24 of 48 rows, steps 74000 to 97000:
Temp PotEng Press Density Volume
1458.61 -16987.6 -501.599 2.69104 37299.4
Loop time of 112.464 on 1 procs for 47000 steps with 3000 atoms

unfix           2

label skip_quench

# --- 3. Final Relaxation (100 ps at 300 K) ---

fix             3 all npt/kk temp 300 300 0.1 iso 0.0 0.0 1.0
dump            1 all custom 10000 trajectory_05.lammpstrj id type x y z
run             197000 upto
Step          Temp          PotEng         Press         Density         Volume
97000   313.33043     -17765.092     -1035.6664      2.9401909      33967.676
Averages over the last 51 of 101 rows, steps 147000 to 197000:
Temp PotEng Press Density Volume
299.654 -17772.2 -107.418 2.94409 33922.7
Loop time of 254.015 on 1 procs for 100000 steps with 3000 atoms

label skip_relax

# --- Final Output ---
write_data      SiC_glass_05.data
System init for write_data ...
